90
terachem gradient in au, energy -1771.5532158554, grad_rms 0.060296, grad_max 0.149496 on atom 26
 H       0.0699594465       0.0697744766     -0.0365913376
 C      -0.1047071959      -0.0640150328      0.0423888900
 H      -0.0134586519       0.0109853961     -0.0106888530
 H       0.0258978935       0.0011802988      0.0014981256
 N       0.0583904004      -0.0123494293     -0.0160115525
 H      -0.0016222657      -0.0116899027      0.0315809476
 C      -0.0270959648      -0.0095949635     -0.1208171141
 N       0.0443578885      -0.0172901831      0.0789997326
 H      -0.0271398575       0.0149248297      0.0004839100
 H       0.0107475197      -0.0039704381     -0.0488302495
 N      -0.0356517352       0.0199392568      0.0388993477
 H      -0.0197952294       0.0169418437      0.0076909663
 H       0.0138884426      -0.0194195662      0.0227881429
 H       0.0812042813      -0.0085873217     -0.0522109892
 C      -0.0209142290       0.0080465961      0.1356867223
 H       0.0005952107      -0.0175993047     -0.0102750794
 H       0.0011536375       0.0143487429     -0.0129437777
 C      -0.0011477428      -0.0453113448     -0.1090120372
 O      -0.0889142532       0.0501695100      0.0714557602
 O       0.0206387559      -0.0103967153     -0.0264592128
 H      -0.0608570688      -0.0496782700     -0.0525010260
 C       0.0475931314       0.0993623408      0.0668315207
 H      -0.0019090035      -0.0175488902     -0.0186468801
 H      -0.0064052797      -0.0192918539      0.0075627712
 C      -0.0087149846       0.0457070535      0.0017147221
 O       0.0257678273      -0.1212453259     -0.0835748276
 O      -0.0040762695       0.0519955391      0.0892838472
 H      -0.1060839699       0.0086110615     -0.0343765719
 C       0.0738035638      -0.0018223270      0.0084603440
 H       0.0211829370      -0.0230297034     -0.0105440588
 H       0.0095234751       0.0060254061      0.0275681685
 N       0.0019542540       0.0247646169     -0.0416612591
 H      -0.0012270305       0.0042610015      0.0612386010
 C      -0.0231807151       0.0045322064      0.0088856529
 H       0.0080944644       0.0020508590     -0.0244676059
 C       0.0101506329      -0.0333061370      0.0476077119
 H       0.0080415865       0.0141064245      0.0064127780
 C      -0.0110883472       0.0065182983     -0.0568406894
 C      -0.0156220689      -0.0233192424     -0.0199046813
 H       0.0141191959       0.0098866196     -0.0071093341
 H       0.0140969977      -0.0175456714      0.0135972969
 H      -0.0147578940       0.0212712915     -0.0086718130
 C      -0.0125828570      -0.0468642522      0.0194843081
 H       0.0211972142      -0.0101303546      0.0216752943
 C      -0.0106400902       0.1077098097     -0.0009918580
 H       0.0039668363      -0.0141393274     -0.0086560051
 C       0.0016026471      -0.0905854727      0.0393550981
 H       0.0078474368       0.0193349786     -0.0013886566
 C      -0.0075620059       0.0606808690     -0.0396524830
 C      -0.0087711799      -0.0071652315     -0.0151545597
 H      -0.0157781122      -0.0016299790      0.0181683458
 H       0.0177018675       0.0034432215     -0.0174349791
 H       0.0098825411       0.0023855502      0.0231093785
 C      -0.0147447016      -0.0319813929      0.0149419347
 H       0.0083570259       0.0150969098     -0.0129036419
 C       0.0261907980       0.0018753893      0.0414808869
 H       0.0028661980      -0.0111102191     -0.0090373855
 C      -0.0292862672      -0.0312305010      0.0122551159
 C      -0.0257006263       0.0417846277     -0.0288966150
 C       0.0000096427      -0.0320311298      0.0105537536
 H      -0.0083692174       0.0107899382     -0.0229333253
 H      -0.0175506614       0.0050170036      0.0110921600
 H       0.0219293258      -0.0046235647      0.0066017245
 C       0.0220170077      -0.0116599200     -0.0074151310
 H       0.0020011224       0.0201531834      0.0112389152
 H       0.0060376284       0.0161811719     -0.0142884106
 C       0.0365063480      -0.0475369885      0.0255383946
 H      -0.0223688765       0.0026023912      0.0028362360
 H      -0.0105663967       0.0112191657     -0.0108398856
 C      -0.0270906774      -0.0390816376      0.0485201054
 H       0.0185959426       0.0043186403     -0.0033887703
 H      -0.0139950740      -0.0112583908     -0.0164994029
 C       0.0427641615       0.0665989926     -0.0336940807
 C       0.0311262836       0.0498173721     -0.0084807896
 H      -0.0103656024       0.0114928381      0.0173439038
 H      -0.0133023546      -0.0247438297     -0.0120044972
 H      -0.0078165857      -0.0254295581     -0.0134936445
 C      -0.0018141733       0.0223372624      0.0168246282
 H      -0.0020290530       0.0248486722     -0.0224461095
 H      -0.0054766881      -0.0203711813     -0.0050006546
 H      -0.0085865202      -0.0299025291      0.0130593997
 O      -0.0232779527      -0.0093092852      0.0646087446
 H       0.0037618952      -0.0217768111     -0.0272737729
 H       0.0155251163       0.0321412204     -0.0408721308
 O      -0.0265250673      -0.0131824958     -0.0620831475
 H      -0.0043238318      -0.0110707227      0.0286022357
 H       0.0473818298       0.0174789762      0.0236136926
 O      -0.0066967475      -0.0069584806      0.0692960249
 H       0.0266034047       0.0135272108     -0.0243010708
 H      -0.0164886651       0.0021760076     -0.0421224586
