90
terachem gradient in au, energy -1771.7414082370, grad_rms 0.039915, grad_max 0.108828 on atom 29
 H       0.0755819279       0.0634335164     -0.0297677201
 C      -0.0777650556      -0.0584653198      0.0374361317
 H       0.0050806896      -0.0013213010     -0.0005339077
 H      -0.0053707337       0.0044248562     -0.0009382812
 N      -0.0005296688      -0.0262032700      0.0033707452
 H       0.0020553630       0.0032895601     -0.0064112337
 C       0.0057702425       0.0414679658     -0.0604841308
 N       0.0190934660      -0.0342584732      0.0271179335
 H      -0.0126770464       0.0075467528     -0.0038246299
 H      -0.0058555984      -0.0029486569     -0.0031901187
 N      -0.0326303806      -0.0121175901      0.0267077652
 H       0.0228635235      -0.0058128321      0.0008800664
 H      -0.0016774942       0.0116087914     -0.0041290718
 H       0.0826885182      -0.0065725321     -0.0492507781
 C      -0.0938844696       0.0056588631      0.0273227515
 H      -0.0026455723       0.0047305814      0.0039693338
 H      -0.0006123014      -0.0002799201     -0.0006600851
 C      -0.0176797517      -0.0235109792     -0.0628085523
 O       0.0232689203      -0.0213655219     -0.0248321478
 O       0.0001477268       0.0330119061      0.0967864378
 H      -0.0533319884      -0.0540611149     -0.0583326106
 C       0.0640669901       0.0357849845      0.0603372892
 H       0.0054751846       0.0002564341      0.0026634690
 H      -0.0024856997       0.0065916185     -0.0022142424
 C      -0.0134631357       0.0256366651      0.0291603432
 O       0.0001606068      -0.0260570508     -0.0131171225
 O      -0.0092952154       0.0077943265     -0.0022055292
 H      -0.0947719437       0.0207566200     -0.0384127068
 C       0.0929751930      -0.0263817902      0.0500320825
 H      -0.0002187415       0.0055441557      0.0031532109
 H       0.0003672032      -0.0101027838     -0.0030400913
 N       0.0019175464       0.0213062066      0.0043026132
 H      -0.0095566016       0.0070917945      0.0038022275
 C       0.0042001867      -0.0182529426      0.0096143281
 H       0.0000477780       0.0071146947      0.0062425743
 C      -0.0049302102       0.0243073983     -0.0069750390
 H       0.0054434006      -0.0032731656     -0.0025256204
 C      -0.0021654280      -0.0163186240      0.0124763470
 C       0.0048727613      -0.0024002579      0.0039344359
 H       0.0029768781       0.0031439166     -0.0057790699
 H      -0.0033912776       0.0030269954     -0.0051872513
 H      -0.0026170088       0.0028767453      0.0002049523
 C       0.0044688068      -0.0854653608     -0.0354749892
 H       0.0070939393       0.0189495973      0.0272604919
 C      -0.0079768963       0.0855898843      0.0327530020
 H      -0.0036164321      -0.0147951984     -0.0215907972
 C       0.0047088307      -0.0501642176     -0.0137642907
 H       0.0046450875       0.0102954202      0.0137362851
 C      -0.0077709177       0.0350745146      0.0060862426
 C      -0.0026978591      -0.0111895824     -0.0021432866
 H       0.0019100436       0.0033663386     -0.0027734551
 H      -0.0039075345       0.0005839865      0.0002935824
 H       0.0032519554       0.0018257576     -0.0010541144
 C       0.0032943651       0.0273098900     -0.0125073674
 H      -0.0009684489       0.0012356337     -0.0003522523
 C      -0.0086013073      -0.0253034620      0.0038352862
 H       0.0069080445       0.0025764163      0.0075119252
 C       0.0060010899      -0.0092505476     -0.0095354056
 C       0.0032695115       0.0000879503     -0.0042594255
 C      -0.0036686363      -0.0015995606     -0.0057829063
 H      -0.0002361339       0.0031932659      0.0025045526
 H       0.0024687001       0.0026755106      0.0039118552
 H      -0.0074615393       0.0017470223     -0.0013081038
 C      -0.0016456427      -0.0008288134      0.0104646506
 H       0.0044972096      -0.0041006161     -0.0052880421
 H      -0.0055075715      -0.0036238542      0.0015094764
 C       0.0045154823       0.0074371180     -0.0073471470
 H       0.0062550289      -0.0017436248      0.0044531236
 H      -0.0021129294      -0.0030097218     -0.0031704506
 C      -0.0010215360       0.0043629822      0.0047560608
 H      -0.0058824358      -0.0041182628     -0.0013069041
 H       0.0069489611       0.0039693796      0.0107707456
 C      -0.0046517838       0.0011256055      0.0019636298
 C      -0.0061062466      -0.0094511653     -0.0002917473
 H       0.0018453217       0.0020944929     -0.0040367501
 H       0.0048049036      -0.0060642411      0.0068882935
 H      -0.0011480266       0.0112162637     -0.0075574621
 C      -0.0060730806       0.0025658830      0.0029710496
 H      -0.0022574970      -0.0075947573      0.0060883538
 H      -0.0021526550       0.0032525528     -0.0028623354
 H       0.0080163241       0.0067506335     -0.0058241690
 O       0.0001874824      -0.0054276779     -0.0042960193
 H       0.0017613767       0.0019572054      0.0072883482
 H      -0.0079815028       0.0023818303     -0.0021571864
 O       0.0090126141      -0.0083615054     -0.0023230243
 H      -0.0020347232      -0.0001602072     -0.0168136254
 H       0.0128089376      -0.0061173788     -0.0005825891
 O       0.0017835061      -0.0007023768     -0.0120305276
 H       0.0021135945       0.0033629660      0.0053981736
 H       0.0000865171       0.0078853455      0.0107560946
