90
terachem gradient in au, energy -1771.7691489188, grad_rms 0.033351, grad_max 0.108117 on atom 22
 H       0.0754364150       0.0649785734     -0.0275082028
 C      -0.0790841301      -0.0662680265      0.0307784940
 H       0.0022565354       0.0033956321     -0.0014499566
 H      -0.0021085950       0.0043223699      0.0026546101
 N       0.0042797099      -0.0092333332     -0.0110668022
 H      -0.0027323518      -0.0017426216      0.0038063973
 C       0.0013931345      -0.0055547322      0.0025319269
 N      -0.0112560530       0.0033952553     -0.0056418460
 H       0.0000760209       0.0016344081     -0.0032968546
 H       0.0012059859      -0.0082012031     -0.0056591798
 N       0.0093141098      -0.0054648958     -0.0072465365
 H      -0.0088438479       0.0094675943     -0.0000514333
 H       0.0035261856      -0.0017718500      0.0041247630
 H       0.0832315327      -0.0055843028     -0.0487460492
 C      -0.0829204068       0.0059064773      0.0537209016
 H      -0.0036813583       0.0000236448     -0.0088016332
 H      -0.0013715390       0.0010978710     -0.0073456566
 C      -0.0123656384       0.0089776435      0.0481928922
 O      -0.0102521639      -0.0006524329      0.0054739204
 O       0.0167603633      -0.0166986602     -0.0493902265
 H      -0.0522999889      -0.0531706291     -0.0583341297
 C       0.0618356039       0.0540336381      0.0703283333
 H       0.0038329440      -0.0036637363     -0.0020116054
 H      -0.0054839994      -0.0018867521     -0.0015242840
 C       0.0024716894      -0.0036728567     -0.0084362796
 O      -0.0071806220      -0.0227786506     -0.0149616044
 O      -0.0116921765       0.0280225648      0.0301135044
 H      -0.0946209289       0.0226733363     -0.0388199413
 C       0.0938895426      -0.0193992481      0.0350738242
 H      -0.0002527469       0.0016812043      0.0040882711
 H      -0.0039325239      -0.0104364893      0.0052058596
 N       0.0060501261       0.0098828202     -0.0009422839
 H      -0.0075172778       0.0090328038      0.0162599873
 C      -0.0029666523       0.0057406318     -0.0006392420
 H       0.0017531862       0.0041045316      0.0013761273
 C       0.0016972325      -0.0191422096      0.0128914759
 H       0.0042097071       0.0020109057      0.0031571172
 C      -0.0028565725      -0.0020864045     -0.0112941341
 C      -0.0013771487      -0.0058056354     -0.0043723784
 H       0.0068756494       0.0061250424     -0.0045017475
 H      -0.0002715052       0.0002367167      0.0053937564
 H      -0.0035757985       0.0070224701      0.0045953933
 C      -0.0006882426      -0.0096094410      0.0030255728
 H       0.0024190947       0.0046711109      0.0046849945
 C      -0.0004209013       0.0182282626     -0.0011317085
 H      -0.0017838978      -0.0040393821     -0.0037008854
 C       0.0006024830       0.0043179460      0.0041022328
 H       0.0009426575      -0.0015307240      0.0007939123
 C      -0.0016865182      -0.0153341807     -0.0072106589
 C      -0.0034591908      -0.0003165441     -0.0022962978
 H      -0.0020296799       0.0067088345      0.0009771247
 H      -0.0020494132       0.0023645075     -0.0011430016
 H       0.0056513912      -0.0032654653      0.0031481578
 C       0.0007552466       0.0200570602     -0.0007175302
 H      -0.0001567145       0.0000243692      0.0006715949
 C       0.0045004936      -0.0245614454      0.0082743664
 H       0.0001535393       0.0026604802      0.0014787860
 C      -0.0022775513       0.0153120840     -0.0026052068
 C      -0.0000069962      -0.0186067658     -0.0071239544
 C      -0.0012931863      -0.0017127282      0.0003304780
 H      -0.0006981053       0.0059702368      0.0002063093
 H      -0.0001140399       0.0007205550      0.0018890794
 H      -0.0017037665       0.0021538389      0.0014391160
 C      -0.0027934119      -0.0012978605     -0.0063851179
 H       0.0005074989       0.0030930149      0.0001071143
 H      -0.0012095271      -0.0044289317      0.0024855477
 C       0.0072122949      -0.0087020085      0.0020638069
 H       0.0050027714       0.0000372906      0.0027698420
 H      -0.0024035845       0.0026755692     -0.0057868439
 C      -0.0053231693       0.0013984773      0.0118320745
 H       0.0003875984      -0.0015752587     -0.0008620711
 H       0.0005588325       0.0025913747      0.0060272293
 C       0.0071073866       0.0087710411     -0.0052516566
 C       0.0031775987       0.0053712650     -0.0024363390
 H      -0.0029368213      -0.0002555025     -0.0003556809
 H       0.0013896800      -0.0112819640      0.0080550723
 H      -0.0062244365       0.0055615520     -0.0087801392
 C      -0.0027325492       0.0021945587     -0.0004984258
 H      -0.0025135431      -0.0037306712      0.0045756302
 H      -0.0042103325      -0.0015142383     -0.0062298582
 H       0.0067221836       0.0039839504     -0.0001791442
 O      -0.0034897014      -0.0005728164      0.0099113130
 H       0.0016442023      -0.0052296018     -0.0009797886
 H      -0.0032886900       0.0046925276     -0.0087261915
 O       0.0042848038      -0.0066226013     -0.0154261382
 H      -0.0035950968      -0.0041257237     -0.0086749720
 H       0.0186490661      -0.0064152130      0.0011538192
 O       0.0010672441       0.0021545489      0.0110706054
 H       0.0062674275       0.0042213660     -0.0017877027
 H      -0.0033244526       0.0050026882     -0.0023964805
